@<TRIPOS>MOLECULE
BDV_1_3L5D
   65    66     0     0     0
SMALL
USER_CHARGES

@<TRIPOS>ATOM
      1 C1         28.2520   10.2950   20.2960 C.3       1 <0>        -0.0652
      2 C2         23.4340   12.0520   19.4210 C.3       1 <0>        -0.0625
      3 C3         23.6780    9.8530   20.6550 C.3       1 <0>        -0.0625
      4 C4         19.1580   10.4820   21.5830 C.3       1 <0>        -0.0098
      5 C5         24.2730   15.3070   24.7810 C.ar      1 <0>        -0.0568
      6 C6         25.2310   13.5550   23.3320 C.ar      1 <0>        -0.0568
      7 C7         23.1860   14.4410   25.1120 C.ar      1 <0>        -0.0568
      8 C8         24.1490   12.6920   23.6630 C.ar      1 <0>        -0.0568
      9 C9         28.8260   11.4220   21.1330 C.3       1 <0>        -0.0545
     10 C10        28.4300   12.7910   20.6080 C.3       1 <0>        -0.0376
     11 C11        29.2580   13.9080   21.2460 C.3       1 <0>         0.0130
     12 C12        26.4520   15.7820   23.5370 C.3       1 <0>         0.0383
     13 C13        21.9650   12.2050   24.9040 C.3       1 <0>         0.0502
     14 C14        21.3900   10.9180   20.3920 C.3       1 <0>         0.0041
     15 C15        25.2970   14.8650   23.8900 C.ar      1 <0>        -0.0303
     16 C16        23.1210   13.1300   24.5530 C.ar      1 <0>        -0.0297
     17 C17        21.7630   10.0660   23.6080 C.3       1 <0>         0.0736
     18 C18        20.9070   11.8540   22.6750 C.2       1 <0>         0.2753
     19 C19        22.8940   11.1590   20.5390 C.3       1 <0>        -0.0409
     20 C20        28.3980   14.3670   23.4560 C.2       1 <0>         0.2999
     21 C21        20.6810   10.6720   21.7290 C.3       1 <0>         0.0706
     22 N1         22.3880    9.3370   24.5310 N.4       1 <0>         0.2701
     23 N2         21.2830    9.5630   22.4480 N.4       1 <0>         0.2881
     24 N3         29.3240   13.7470   22.6950 N.am      1 <0>        -0.2994
     25 N4         27.4880   15.0870   22.7670 N.am      1 <0>        -0.2953
     26 N5         21.5530   11.3910   23.7570 N.am      1 <0>        -0.2106
     27 O1         20.5470   13.0130   22.4570 O.2       1 <0>        -0.2687
     28 O2         28.3810   14.2820   24.6840 O.2       1 <0>        -0.2529
     29 H1         28.5668    9.3284   20.7163 H         1 <0>         0.0230
     30 H2         27.1538   10.3569   20.3017 H         1 <0>         0.0230
     31 H3         28.6190   10.3823   19.2627 H         1 <0>         0.0230
     32 H4         22.8426   12.9782   19.3729 H         1 <0>         0.0232
     33 H5         24.4862   12.2992   19.6253 H         1 <0>         0.0232
     34 H6         23.3618   11.5208   18.4605 H         1 <0>         0.0232
     35 H7         23.2575    9.2433   21.4683 H         1 <0>         0.0232
     36 H8         23.6084    9.2984   19.7076 H         1 <0>         0.0232
     37 H9         24.7328   10.0768   20.8724 H         1 <0>         0.0232
     38 H10        18.7127   10.3105   22.5741 H         1 <0>         0.0292
     39 H11        18.7174   11.3846   21.1344 H         1 <0>         0.0292
     40 H12        18.9571    9.6153   20.9360 H         1 <0>         0.0292
     41 H13        24.3201   16.2987   25.2060 H         1 <0>         0.0621
     42 H14        26.0033   13.2169   22.6570 H         1 <0>         0.0621
     43 H15        22.4128   14.7791   25.7860 H         1 <0>         0.0621
     44 H16        24.1047   11.6998   23.2387 H         1 <0>         0.0621
     45 H17        28.4497   11.3200   22.1616 H         1 <0>         0.0263
     46 H18        29.9232   11.3455   21.1167 H         1 <0>         0.0263
     47 H19        28.5908   12.8110   19.5200 H         1 <0>         0.0280
     48 H20        27.3685   12.9634   20.8394 H         1 <0>         0.0280
     49 H21        30.2781   13.8759   20.8358 H         1 <0>         0.0462
     50 H22        28.7905   14.8765   21.0147 H         1 <0>         0.0462
     51 H23        26.0664   16.6173   22.9341 H         1 <0>         0.0512
     52 H24        26.8994   16.1589   24.4686 H         1 <0>         0.0512
     53 H25        22.2832   11.5349   25.7162 H         1 <0>         0.0518
     54 H26        21.1099   12.8162   25.2284 H         1 <0>         0.0518
     55 H27        20.9434   11.8081   19.9248 H         1 <0>         0.0330
     56 H28        21.2444   10.0313   19.7575 H         1 <0>         0.0330
     57 H29        22.2539    9.3238   24.2547 H         1 <0>         0.1733
     58 H30        23.0409   11.6992   21.4859 H         1 <0>         0.0298
     59 H31        22.6507    9.9229   25.2976 H         1 <0>         0.2071
     60 H32        21.7761    8.6163   24.8569 H         1 <0>         0.2071
     61 H33        23.2065    8.9242   24.1315 H         1 <0>         0.2071
     62 H34        22.0233    9.1597   21.9102 H         1 <0>         0.2104
     63 H35        20.6010    8.8549   22.6309 H         1 <0>         0.2104
     64 H36        30.0400   13.1893   23.1149 H         1 <0>         0.1502
     65 H37        27.5192   15.1443   21.7691 H         1 <0>         0.1506
@<TRIPOS>BOND
     1    1    9 1
     2    2   19 1
     3    3   19 1
     4    4   21 1
     5    5    7 ar
     6    5   15 ar
     7    6    8 ar
     8    6   15 ar
     9    7   16 ar
    10    8   16 ar
    11    9   10 1
    12   10   11 1
    13   11   24 1
    14   12   15 1
    15   12   25 1
    16   13   16 1
    17   13   26 1
    18   14   19 1
    19   14   21 1
    20   17   22 1
    21   17   23 1
    22   17   26 1
    23   18   21 1
    24   18   26 am
    25   18   27 2
    26   20   24 am
    27   20   25 am
    28   20   28 2
    29   21   23 1
    30    1   29 1
    31    1   30 1
    32    1   31 1
    33    2   32 1
    34    2   33 1
    35    2   34 1
    36    3   35 1
    37    3   36 1
    38    3   37 1
    39    4   38 1
    40    4   39 1
    41    4   40 1
    42    5   41 1
    43    6   42 1
    44    7   43 1
    45    8   44 1
    46    9   45 1
    47    9   46 1
    48   10   47 1
    49   10   48 1
    50   11   49 1
    51   11   50 1
    52   12   51 1
    53   12   52 1
    54   13   53 1
    55   13   54 1
    56   14   55 1
    57   14   56 1
    58   17   57 1
    59   19   58 1
    60   22   59 1
    61   22   60 1
    62   22   61 1
    63   23   62 1
    64   23   63 1
    65   24   64 1
    66   25   65 1
